Version 4
SHEET 1 2128 888
WIRE 928 48 832 48
WIRE 992 48 928 48
WIRE 1104 48 992 48
WIRE 1184 48 1104 48
WIRE 1552 48 1184 48
WIRE -64 96 -160 96
WIRE 128 96 -64 96
WIRE 304 96 128 96
WIRE 128 144 128 96
WIRE 304 144 304 96
WIRE 832 144 832 48
WIRE 928 144 928 48
WIRE 1136 144 1056 144
WIRE 1184 144 1184 48
WIRE 1184 144 1136 144
WIRE 1232 144 1184 144
WIRE 1312 144 1232 144
WIRE 1552 144 1552 48
WIRE 32 160 16 160
WIRE 80 160 32 160
WIRE 400 160 352 160
WIRE 416 160 400 160
WIRE 1056 160 1056 144
WIRE 1136 160 1136 144
WIRE 1232 160 1232 144
WIRE 1312 160 1312 144
WIRE -160 192 -160 96
WIRE -64 192 -64 96
WIRE 80 208 48 208
WIRE 384 208 352 208
WIRE 992 208 992 48
WIRE 48 224 48 208
WIRE 384 224 384 208
WIRE 464 224 432 224
WIRE 576 224 528 224
WIRE 720 224 688 224
WIRE 832 224 832 208
WIRE 832 224 784 224
WIRE 128 256 128 224
WIRE 432 256 432 224
WIRE 432 256 128 256
WIRE 1056 256 1056 240
WIRE 1136 256 1136 240
WIRE 1136 256 1056 256
WIRE 1184 256 1136 256
WIRE 1232 256 1232 240
WIRE 1232 256 1184 256
WIRE 1312 256 1312 240
WIRE 1312 256 1232 256
WIRE 304 272 304 224
WIRE 432 272 304 272
WIRE 128 304 128 256
WIRE 304 304 304 272
WIRE 432 304 432 272
WIRE 576 304 432 304
WIRE 928 304 928 208
WIRE 928 304 688 304
WIRE 1184 304 1184 256
WIRE 32 320 16 320
WIRE 80 320 32 320
WIRE 400 320 352 320
WIRE 416 320 400 320
WIRE 832 320 832 224
WIRE 928 320 928 304
WIRE 1280 320 1232 320
WIRE 1328 320 1280 320
WIRE 1552 320 1552 224
WIRE 1440 336 1408 336
WIRE 1504 336 1440 336
WIRE 80 368 48 368
WIRE 384 368 352 368
WIRE 1264 368 1232 368
WIRE 48 384 48 368
WIRE 384 384 384 368
WIRE 1504 384 1472 384
WIRE -160 416 -160 272
WIRE -64 416 -64 256
WIRE -64 416 -160 416
WIRE 128 416 128 384
WIRE 128 416 -64 416
WIRE 304 416 304 384
WIRE 304 416 128 416
WIRE 832 416 832 384
WIRE 928 416 928 384
WIRE 928 416 832 416
WIRE 992 416 992 272
WIRE 992 416 928 416
WIRE 1152 416 992 416
WIRE 1184 416 1184 384
WIRE 1184 416 1152 416
WIRE 1264 416 1264 368
WIRE 1264 416 1184 416
WIRE 1472 416 1472 384
WIRE 1472 416 1264 416
WIRE 1552 416 1552 400
WIRE 1552 416 1472 416
WIRE -160 448 -160 416
WIRE 1152 448 1152 416
WIRE -16 528 -112 528
WIRE 144 528 -16 528
WIRE 160 528 144 528
WIRE 1376 560 1328 560
WIRE 1488 560 1456 560
WIRE 1536 560 1488 560
WIRE 1568 560 1536 560
WIRE 1776 560 1680 560
WIRE 1840 560 1776 560
WIRE -16 576 -16 528
WIRE 32 576 -16 576
WIRE 144 576 96 576
WIRE 160 576 144 576
WIRE 1200 576 1184 576
WIRE 1264 576 1200 576
WIRE 1488 576 1488 560
WIRE 1680 576 1680 560
WIRE -112 592 -112 528
WIRE 1488 656 1488 640
WIRE 1680 688 1680 656
WIRE -112 704 -112 672
FLAG 48 224 0
FLAG 48 384 0
FLAG 384 224 0
FLAG 384 384 0
FLAG 32 160 SW1
FLAG 400 320 SW1
FLAG 32 320 SW2
FLAG 400 160 SW2
FLAG 1104 48 Vout
FLAG -160 448 0
FLAG -112 704 0
FLAG 144 528 SW1
FLAG 144 576 SW2
FLAG 1152 448 0
FLAG 1200 576 Vout
FLAG 1536 560 VOCP
FLAG 1280 320 VOCP
FLAG 1440 336 Vcharge
FLAG 1776 560 Vcharge
FLAG 1680 688 0
FLAG 1488 656 0
SYMBOL sw 128 240 M180
SYMATTR InstName S1
SYMATTR Value MSW
SYMBOL sw 128 400 M180
SYMATTR InstName S2
SYMATTR Value MSW
SYMBOL sw 304 400 R180
SYMATTR InstName S3
SYMATTR Value MSW
SYMBOL sw 304 240 R180
SYMATTR InstName S4
SYMATTR Value MSW
SYMBOL cap -80 192 R0
SYMATTR InstName C3
SYMATTR Value 2500µ
SYMATTR SpiceLine Rser=0.001 Lser=1n
SYMBOL voltage -160 176 R0
WINDOW 123 0 0 Left 0
WINDOW 39 24 124 Left 2
SYMATTR SpiceLine Rser=0.1
SYMATTR InstName V1
SYMATTR Value 24
SYMBOL ind2 560 208 R0
WINDOW 3 11 107 Left 2
SYMATTR Value 5.8µ
SYMATTR InstName L1
SYMATTR Type ind
SYMATTR SpiceLine Rser=12m
SYMBOL ind2 704 208 M0
WINDOW 3 -1 107 Left 2
SYMATTR Value 5.8µ
SYMATTR InstName L2
SYMATTR Type ind
SYMATTR SpiceLine Rser=12m
SYMBOL diode 848 208 R180
WINDOW 0 24 64 Left 2
WINDOW 3 24 0 Left 2
SYMATTR InstName D1
SYMATTR Value DI
SYMBOL diode 848 384 R180
WINDOW 0 24 64 Left 2
WINDOW 3 24 0 Left 2
SYMATTR InstName D2
SYMATTR Value DI
SYMBOL diode 944 208 R180
WINDOW 0 24 64 Left 2
WINDOW 3 24 0 Left 2
SYMATTR InstName D3
SYMATTR Value DI
SYMBOL diode 944 384 R180
WINDOW 0 24 64 Left 2
WINDOW 3 24 0 Left 2
SYMATTR InstName D4
SYMATTR Value DI
SYMBOL cap 976 208 R0
SYMATTR InstName C4
SYMATTR Value 1500µ
SYMATTR SpiceLine Rser=1m Lser=0.1n
SYMBOL Misc\\signal -112 576 R0
WINDOW 123 0 0 Left 0
WINDOW 39 0 0 Left 0
SYMATTR InstName V2
SYMATTR Value PULSE(0 12 0 1n 1n 5.2u 10.4u)
SYMBOL Digital\\inv 32 512 R0
SYMATTR InstName A1
SYMBOL cap 528 208 R90
WINDOW 0 0 32 VBottom 2
WINDOW 3 32 32 VTop 2
SYMATTR InstName C1
SYMATTR Value 380n
SYMATTR SpiceLine Rser=10m
SYMBOL cap 784 208 R90
WINDOW 0 0 32 VBottom 2
WINDOW 3 32 32 VTop 2
SYMATTR InstName C2
SYMATTR Value 380n
SYMATTR SpiceLine Rser=10m
SYMBOL res 1120 144 R0
SYMATTR InstName R1
SYMATTR Value 10
SYMBOL res 1536 128 R0
SYMATTR InstName R2
SYMATTR Value 2.25
SYMBOL sw 1184 400 R180
WINDOW 0 15 11 Left 2
WINDOW 3 10 101 Left 2
SYMATTR InstName S5
SYMATTR Value MSW
SYMBOL res 1216 144 R0
SYMATTR InstName R3
SYMATTR Value 10
SYMBOL sw 1552 416 M180
WINDOW 0 15 11 Left 2
WINDOW 3 10 101 Left 2
SYMATTR InstName S6
SYMATTR Value MSW
SYMBOL Misc\\signal 1680 560 R0
WINDOW 123 0 0 Left 0
WINDOW 39 0 0 Left 0
SYMATTR InstName V3
SYMATTR Value PULSE(0 5 50ms 1n 1n 1 1)
SYMBOL Digital\\schmitt 1264 512 R0
WINDOW 3 -328 135 Left 2
SYMATTR InstName A3
SYMATTR Value Vhigh=12 Vt=22 Vh=1 Trise=.1u Tfall=.1u
SYMBOL res 1472 544 R90
WINDOW 0 0 56 VBottom 2
WINDOW 3 32 56 VTop 2
SYMATTR InstName R4
SYMATTR Value 100
SYMBOL cap 1472 576 R0
SYMATTR InstName C6
SYMATTR Value 10n
SYMBOL res 1040 144 R0
SYMATTR InstName R5
SYMATTR Value 10
SYMBOL res 1296 144 R0
SYMATTR InstName R6
SYMATTR Value 10
TEXT 568 192 Left 2 !K L1 L2 0.7
TEXT 336 616 Left 2 !.tran 0 75m 0 100n
TEXT 296 488 Left 2 !.model MSW SW(Ron=0.001 Roff=1Meg Vt=.5)
TEXT 352 552 Left 2 !.model DI D(Ron=0.01 Roff=10Meg Vfwd=0.3 Vrev=1000)
