Version 4
SHEET 1 936 692
WIRE -816 -160 -1184 -160
WIRE -736 -160 -816 -160
WIRE -672 -160 -736 -160
WIRE -608 -160 -672 -160
WIRE -256 -160 -608 -160
WIRE -816 -112 -816 -160
WIRE -736 -112 -736 -160
WIRE -672 -112 -672 -160
WIRE -608 -112 -608 -160
WIRE -256 -112 -256 -160
WIRE -256 -112 -272 -112
WIRE -240 -112 -256 -112
WIRE -272 -96 -272 -112
WIRE -240 -96 -240 -112
WIRE -1184 -80 -1184 -160
WIRE -1008 -32 -1008 -48
WIRE -944 -32 -944 -48
WIRE -880 -32 -880 -48
WIRE -816 -32 -816 -48
WIRE -736 -32 -736 -48
WIRE -672 -32 -672 -48
WIRE -608 -32 -608 -48
WIRE -336 -16 -432 -16
WIRE -80 0 -160 0
WIRE -1184 16 -1184 0
WIRE -80 32 -80 0
WIRE -80 32 -160 32
WIRE 16 32 -80 32
WIRE 128 32 96 32
WIRE 256 32 208 32
WIRE 320 32 256 32
WIRE 384 32 320 32
WIRE 480 32 384 32
WIRE 256 48 256 32
WIRE 320 48 320 32
WIRE 384 48 384 32
WIRE -80 64 -80 32
WIRE -80 64 -160 64
WIRE -336 80 -432 80
WIRE 480 112 480 32
WIRE 256 144 256 112
WIRE 320 144 320 112
WIRE 384 144 384 112
WIRE -256 176 -256 144
WIRE 480 224 480 192
WIRE -848 240 -864 240
WIRE -656 240 -688 240
WIRE -864 304 -864 240
WIRE -688 304 -688 240
WIRE -864 416 -864 384
WIRE -688 416 -688 384
FLAG -1184 16 0
FLAG -256 176 0
FLAG -432 -16 top_gate
FLAG -432 80 bot_gate
FLAG -848 240 top_gate
FLAG -656 240 bot_gate
FLAG -864 416 0
FLAG -688 416 0
FLAG 480 224 0
FLAG -816 -32 0
FLAG -736 -32 0
FLAG -672 -32 0
FLAG -608 -32 0
FLAG 256 144 0
FLAG 320 144 0
FLAG 384 144 0
FLAG -880 -32 0
FLAG -1008 -32 0
FLAG -944 -32 0
SYMBOL ind 0 48 R270
WINDOW 0 32 56 VTop 2
WINDOW 3 5 56 VBottom 2
SYMATTR InstName L1
SYMATTR Value 4.7µ
SYMATTR SpiceLine Ipk=8.5 Rser=18.4m
SYMBOL voltage -1184 -96 R0
WINDOW 0 -145 18 Left 2
WINDOW 3 -84 93 Left 2
WINDOW 123 0 0 Left 0
WINDOW 39 -153 42 Left 2
SYMATTR InstName V1
SYMATTR Value 18V
SYMATTR SpiceLine Rser=0.1
SYMBOL AutoGenerated\\csd87331q3d -240 32 R0
WINDOW 0 123 113 Bottom 2
WINDOW 3 118 125 Top 2
SYMATTR InstName U1
SYMBOL voltage -864 288 R0
WINDOW 3 -328 165 Left 2
WINDOW 123 0 0 Left 0
WINDOW 39 0 0 Left 0
SYMATTR Value PULSE(0 22.2 0 50p 50p 0.83u 1.66u)
SYMATTR InstName V2
SYMBOL voltage -688 288 R0
WINDOW 3 56 137 Left 2
WINDOW 123 0 0 Left 0
WINDOW 39 0 0 Left 0
SYMATTR Value PULSE(0 22.2 0.845u 50p 50p 0.80u 1.66u)
SYMATTR InstName V3
SYMBOL current 480 112 R0
WINDOW 123 0 0 Left 0
WINDOW 39 0 0 Left 0
SYMATTR InstName I1
SYMATTR Value 8
SYMBOL cap -832 -112 R0
SYMATTR InstName C1
SYMATTR Value 4.7µ
SYMATTR SpiceLine V=35 Rser=6.4m
SYMBOL cap -752 -112 R0
SYMATTR InstName C2
SYMATTR Value 4.7µ
SYMATTR SpiceLine V=35 Rser=6.4m
SYMBOL cap -688 -112 R0
SYMATTR InstName C3
SYMATTR Value 4.7µ
SYMATTR SpiceLine V=35 Rser=6.4m
SYMBOL cap -624 -112 R0
SYMATTR InstName C4
SYMATTR Value 4.7µ
SYMATTR SpiceLine V=35 Rser=6.4m
SYMBOL cap 240 48 R0
SYMATTR InstName C6
SYMATTR Value 2.4µ
SYMATTR SpiceLine V=35 Rser=6.4m
SYMBOL cap 304 48 R0
SYMATTR InstName C7
SYMATTR Value 2.4µ
SYMATTR SpiceLine V=35 Rser=6.4m
SYMBOL cap 368 48 R0
SYMATTR InstName C8
SYMATTR Value 2.4µ
SYMATTR SpiceLine V=35 Rser=6.4m
SYMBOL cap -896 -112 R0
SYMATTR InstName C9
SYMATTR Value 1.7µ
SYMATTR SpiceLine V=35 Rser=6.4m
SYMBOL cap -960 -112 R0
SYMATTR InstName C5
SYMATTR Value 1.7µ
SYMATTR SpiceLine V=35 Rser=6.4m
SYMBOL cap -1024 -112 R0
SYMATTR InstName C10
SYMATTR Value 1.7µ
SYMATTR SpiceLine V=35 Rser=6.4m
SYMBOL res 224 16 R90
WINDOW 0 0 56 VBottom 2
WINDOW 3 32 56 VTop 2
SYMATTR InstName R1
SYMATTR Value 0.01
SYMATTR SpiceLine pwr=4
TEXT -280 -200 Left 2 !.lib CSD87331Q3D.lib
TEXT -488 328 Left 2 !.tran 0 1m 0
TEXT -960 496 Left 2 ;Switching frequency is 600kHz with\ndead time of 30ns
TEXT -984 592 Left 2 ;Worst case ripple occurs closest to 50% duty cycle.\nMin duty for our application is 18V to min battery voltage of 9.6 V (3.2Vx3)\nThis gives duty of 53.333 %\nWill conduct sim at 50% duty anyways
