Version 4
SHEET 1 880 692
WIRE -992 -160 -1072 -160
WIRE -784 -160 -912 -160
WIRE -720 -160 -784 -160
WIRE -656 -160 -720 -160
WIRE -256 -160 -656 -160
WIRE -784 -128 -784 -160
WIRE -720 -128 -720 -160
WIRE -656 -128 -656 -160
WIRE -256 -112 -256 -160
WIRE -256 -112 -272 -112
WIRE -240 -112 -256 -112
WIRE -272 -96 -272 -112
WIRE -240 -96 -240 -112
WIRE -1072 -80 -1072 -160
WIRE -336 -16 -432 -16
WIRE -784 0 -784 -64
WIRE -720 0 -720 -64
WIRE -656 0 -656 -64
WIRE -80 0 -160 0
WIRE -1072 16 -1072 0
WIRE -80 32 -80 0
WIRE -80 32 -160 32
WIRE 16 32 -80 32
WIRE 272 32 96 32
WIRE 336 32 272 32
WIRE 480 32 336 32
WIRE -80 64 -80 32
WIRE -80 64 -160 64
WIRE -336 80 -432 80
WIRE 272 96 272 32
WIRE 336 96 336 32
WIRE 480 112 480 32
WIRE -256 176 -256 144
WIRE 272 224 272 160
WIRE 336 224 336 160
WIRE 480 224 480 192
WIRE -848 240 -864 240
WIRE -656 240 -688 240
WIRE -864 304 -864 240
WIRE -688 304 -688 240
WIRE -864 416 -864 384
WIRE -688 416 -688 384
FLAG -1072 16 0
FLAG -256 176 0
FLAG -432 -16 top_gate
FLAG -432 80 bot_gate
FLAG -848 240 top_gate
FLAG -656 240 bot_gate
FLAG -864 416 0
FLAG -688 416 0
FLAG 272 224 0
FLAG 336 224 0
FLAG 480 224 0
FLAG -784 0 0
FLAG -720 0 0
FLAG -656 0 0
SYMBOL ind 0 48 R270
WINDOW 0 32 56 VTop 2
WINDOW 3 5 56 VBottom 2
SYMATTR InstName L1
SYMATTR Value 4.7µ
SYMATTR SpiceLine Ipk=8.5 Rser=18.4m
SYMBOL voltage -1072 -96 R0
WINDOW 0 -145 18 Left 2
WINDOW 3 -84 93 Left 2
WINDOW 123 0 0 Left 0
WINDOW 39 -153 42 Left 2
SYMATTR InstName V1
SYMATTR Value 18V
SYMATTR SpiceLine Rser=0.1
SYMBOL AutoGenerated\\csd87331q3d -240 32 R0
WINDOW 0 123 113 Bottom 2
WINDOW 3 118 125 Top 2
SYMATTR InstName U1
SYMBOL voltage -864 288 R0
WINDOW 3 -328 165 Left 2
WINDOW 123 0 0 Left 0
WINDOW 39 0 0 Left 0
SYMATTR Value PULSE(0 22.2 0 50p 50p 0.86978u 1.66u)
SYMATTR InstName V2
SYMBOL voltage -688 288 R0
WINDOW 3 56 137 Left 2
WINDOW 123 0 0 Left 0
WINDOW 39 0 0 Left 0
SYMATTR Value PULSE(0 22.2 0.85478u 50p 50p 0.86978u 1.66u)
SYMATTR InstName V3
SYMBOL cap 320 96 R0
SYMATTR InstName C1
SYMATTR Value 1µ
SYMBOL cap 256 96 R0
SYMATTR InstName C2
SYMATTR Value 47µ
SYMATTR SpiceLine V=50 Irms=.105 Rser=0.12
SYMBOL current 480 112 R0
SYMATTR InstName I1
SYMATTR Value 8
SYMBOL ind -1008 -144 R270
WINDOW 0 32 56 VTop 2
WINDOW 3 5 56 VBottom 2
SYMATTR InstName L2
SYMATTR Value 3n
SYMATTR SpiceLine Rser=0.00001
SYMBOL cap -736 -128 R0
SYMATTR InstName C3
SYMATTR Value 1µ
SYMBOL cap -672 -128 R0
SYMATTR InstName C4
SYMATTR Value 1µ
TEXT -280 -200 Left 2 !.lib CSD87331Q3D.lib
TEXT -488 328 Left 2 !.tran 0 1m 0
TEXT -960 496 Left 2 ;Switching frequency is 600kHz with\ndead time of 30ns
TEXT -984 592 Left 2 ;Worst case ripple occurs closest to 50% duty cycle.\nMin duty for our application is 18V to min battery voltage of 9.6 V (3.2Vx3)\nThis gives duty of 53.333 %\nWill conduct sim at 50% duty anyways
